 use_ekici = .true.

 hist_fincl1 += 'MICRO_SIGMA_EKICI'  